/*--------------------------------*- C++ -*----------------------------------*\
| =========                 |                                                 |
| \\      /  F ield         | OpenFOAM: The Open Source CFD Toolbox           |
|  \\    /   O peration     | Version:  v2206                                 |
|   \\  /    A nd           | Website:  www.openfoam.com                      |
|    \\/     M anipulation  |                                                 |
\*---------------------------------------------------------------------------*/
FoamFile
{
    version     2.0;
    format      ascii;
    class       dictionary;
    object      fvSolution;
}
// * * * * * * * * * * * * * * * * * * * * * * * * * * * * * * * * * * * * * //

solvers
{
    p
    {
        solver          GAMG;
        smoother        GaussSeidel;
        tolerance       1e-7;
        relTol          0.01;
    }
    
    Phi
    {
        solver PCG;
        preconditioner DIC;
        tolerance 1e-7;
        relTol 0.01;
    }

    phiE
    {
        solver          PCG;
        preconditioner  DIC;
        tolerance       1e-08;
        relTol          0.2;
    }

    U
    {
/*        solver          PBiCG;
        preconditioner  DILU;*/
        solver          smoothSolver;
        smoother        GaussSeidel;
        tolerance       1e-8;
        relTol          0.1;
        nSweeps         1;
    }

    "(k|epsilon|omega)"
    {
        solver          smoothSolver;
        smoother        symGaussSeidel;
        //smoother        GaussSeidel;
        tolerance       1e-8;
        relTol          0.1;
        nSweeps         1;
    }
}

SIMPLE
{
    nNonOrthogonalCorrectors 2;
    consistent yes;

    pRefCell  0;
    pRefValue 0;
}

potentialFlow
{
    nNonOrthogonalCorrectors 50;
}

relaxationFactors
{
    equations
    {
    	p		        0.3;
        U               0.7;
        k               0.7;
        "(epsilon|omega)" 0.7;
        phiE            1.0;
    }
}

cache
{
    grad(U);
}


// ************************************************************************* //
